@<TRIPOS>MOLECULE
M4-B
 29 30 0 0 0
SMALL
GASTEIGER

@<TRIPOS>ATOM
      1 O2        -11.3030   -0.9640  -16.4070 O.2      1 M4-B       -0.2458
      2 C2        -10.2970    1.1630  -16.0040 C.2      1 M4-B        0.0292
      3 C3        -10.3410   -0.3060  -16.0560 C.2      1 M4-B        0.3299
      4 O3         -9.8650    3.8810  -15.9490 O.2      1 M4-B       -0.2870
      5 C4        -11.7730    4.3380  -17.2790 C.ar     1 M4-B        0.0253
      6 C5        -12.8810    3.8180  -17.9670 C.ar     1 M4-B       -0.0328
      7 C6        -11.6040    5.7200  -17.1690 C.ar     1 M4-B       -0.0472
      8 C7        -13.8250    4.7000  -18.5230 C.ar     1 M4-B       -0.0161
      9 C8        -12.5400    6.5850  -17.7400 C.ar     1 M4-B       -0.0193
     10 C9        -13.6530    6.0820  -18.4170 C.ar     1 M4-B        0.1204
     11 C10       -10.9360    1.9660  -16.8740 C.2      1 M4-B        0.0069
     12 C11       -11.7630    1.5810  -18.0670 C.3      1 M4-B       -0.0198
     13 C12       -10.7770    3.4360  -16.6370 C.2      1 M4-B        0.1897
     14 C13       -13.0960    2.3290  -18.0640 C.3      1 M4-B       -0.0228
     15 C1        -15.0010    7.9980  -18.0000 C.3      1 M4-B        0.0788
     16 O1        -14.4920    7.0390  -18.9180 O.3      1 M4-B       -0.4951
     17 O4         -9.1730   -0.8460  -15.6550 O.3      1 M4-B       -0.4775
     18 H12        -9.1990   -1.8070  -15.4930 H        1 M4-B        0.2954
     19 H          -9.7421    1.6049  -15.2544 H        1 M4-B        0.0693
     20 H         -10.7878    6.1018  -16.6660 H        1 M4-B        0.0626
     21 H         -14.6513    4.3230  -19.0131 H        1 M4-B        0.0657
     22 H         -12.4079    7.6055  -17.6609 H        1 M4-B        0.0654
     23 H         -11.9510    0.5280  -18.0391 H        1 M4-B        0.0318
     24 H         -11.2258    1.8386  -18.9558 H        1 M4-B        0.0318
     25 H         -13.6220    2.1099  -18.9697 H        1 M4-B        0.0317
     26 H         -13.6630    2.0108  -17.2142 H        1 M4-B        0.0317
     27 H         -15.6391    8.6835  -18.5175 H        1 M4-B        0.0660
     28 H         -14.1879    8.5333  -17.5560 H        1 M4-B        0.0660
     29 H         -15.5591    7.4989  -17.2356 H        1 M4-B        0.0660
@<TRIPOS>BOND
     1     1     3    2
     2     2     3    1
     3     2    11    2
     4     2    19    1
     5     3    17    1
     6     4    13    2
     7     5     6   ar
     8     5     7   ar
     9     5    13    1
    10     6     8   ar
    11     6    14    1
    12     7     9   ar
    13     7    20    1
    14     8    10   ar
    15     8    21    1
    16     9    10   ar
    17     9    22    1
    18    10    16    1
    19    11    12    1
    20    11    13    1
    21    12    14    1
    22    12    23    1
    23    12    24    1
    24    14    25    1
    25    14    26    1
    26    15    16    1
    27    15    27    1
    28    15    28    1
    29    15    29    1
    30    17    18    1
